Circuit: * C:\Users\richa\Desktop\3ej4\lab5\Part1\A.asc

Instance "m:opamp:55": Length shorter than recommended for a level 1 MOSFET.
Instance "m:opamp:54": Length shorter than recommended for a level 1 MOSFET.
Instance "m:opamp:52": Length shorter than recommended for a level 1 MOSFET.
Instance "m:opamp:51": Length shorter than recommended for a level 1 MOSFET.
Instance "m:opamp:48": Length shorter than recommended for a level 1 MOSFET.
Instance "m:opamp:46": Length shorter than recommended for a level 1 MOSFET.
Instance "m:opamp:45": Length shorter than recommended for a level 1 MOSFET.
Instance "m:opamp:50": Length shorter than recommended for a level 1 MOSFET.
Instance "m:opamp:49": Length shorter than recommended for a level 1 MOSFET.
Instance "m:opamp:44": Length shorter than recommended for a level 1 MOSFET.
Instance "m:opamp:43": Length shorter than recommended for a level 1 MOSFET.
Instance "m:opamp:42": Length shorter than recommended for a level 1 MOSFET.
Instance "m:opamp:41": Length shorter than recommended for a level 1 MOSFET.
Instance "m:opamp:53": Length shorter than recommended for a level 1 MOSFET.
Instance "m:opamp:23": Length shorter than recommended for a level 1 MOSFET.
Instance "m:opamp:19": Length shorter than recommended for a level 1 MOSFET.
Instance "m:opamp:5": Length shorter than recommended for a level 1 MOSFET.
Instance "m:opamp:4": Length shorter than recommended for a level 1 MOSFET.
Instance "m:opamp:3": Length shorter than recommended for a level 1 MOSFET.
Instance "m:opamp:2": Length shorter than recommended for a level 1 MOSFET.
Instance "m:opamp:8": Length shorter than recommended for a level 1 MOSFET.
Instance "m:opamp:1": Length shorter than recommended for a level 1 MOSFET.
Early termination of direct N-R iteration.
Direct Newton iteration failed to find .op point.  (Use ".option noopiter" to skip.)
Starting Gmin stepping
Gmin = 10
Gmin = 1.07374
vernier = 0.5
vernier = 0.25
vernier = 0.125
vernier = 0.0625
vernier = 0.03125
Gmin = 1.26323
vernier = 0.015625
vernier = 0.0078125
vernier = 0.00390625
Gmin = 1.25708
vernier = 0.00195313
vernier = 0.000976563
vernier = 0.00130208
vernier = 0.000651042
Gmin = 1.25677
vernier = 0.000488281
Gmin = 0
Gmin stepping failed

Starting source stepping with srcstepmethod=0
Source Step = 3.0303%
Source Step = 33.3333%
Source Step = 63.6364%
Source Step = 93.9394%
Source stepping succeeded in finding the operating point.


Date: Mon Nov 21 17:33:53 2022
Total elapsed time: 0.202 seconds.

tnom = 27
temp = 27
method = trap
totiter = 2066
traniter = 0
tranpoints = 0
accept = 0
rejected = 0
matrix size = 140
fillins = 280
solver = Normal
Matrix Compiler1:     904 opcodes
Matrix Compiler2: 17.04 KB object code size  2.6/1.8/[0.7]

