Circuit: * C:\Users\richa\Desktop\3ej4\lab2\experiment\Draft1.asc

Direct Newton iteration for .op point succeeded.

Date: Tue Oct 04 23:17:16 2022
Total elapsed time: 0.031 seconds.

tnom = 27
temp = 27
method = trap
totiter = 7
traniter = 0
tranpoints = 0
accept = 0
rejected = 0
matrix size = 20
fillins = 0
solver = Normal
Matrix Compiler1:      69 opcodes
Matrix Compiler2: 1.65 KB object code size
