Circuit: * C:\Users\richa\Desktop\3ej4\lab2\experiment\Part1A.asc


Date: Tue Oct 04 10:47:00 2022
Total elapsed time: 0.036 seconds.

tnom = 27
temp = 27
method = trap
totiter = 33
traniter = 0
tranpoints = 0
accept = 0
rejected = 0
matrix size = 9
fillins = 0
solver = Normal
Matrix Compiler1: 492 bytes object code size
Matrix Compiler2: 695 bytes object code size
