Circuit: * C:\Users\richa\Desktop\3ej4\lab2\experiment\part1\Part1B.asc

Direct Newton iteration for .op point succeeded.

Date: Thu Oct 06 00:18:14 2022
Total elapsed time: 0.055 seconds.

tnom = 27
temp = 27
method = modified trap
totiter = 87
traniter = 74
tranpoints = 38
accept = 38
rejected = 0
matrix size = 15
fillins = 1
solver = Normal
Matrix Compiler1: 872 bytes object code size
Matrix Compiler2: 1.17 KB object code size
