Circuit: * C:\Users\richa\Desktop\3ej4\lab4\part1\A.asc

Direct Newton iteration for .op point succeeded.

Date: Wed Nov 09 18:57:47 2022
Total elapsed time: 0.025 seconds.

tnom = 27
temp = 27
method = trap
totiter = 8
traniter = 0
tranpoints = 0
accept = 0
rejected = 0
matrix size = 56
fillins = 18
solver = Normal
Matrix Compiler1:     248 opcodes
Matrix Compiler2: 4.85 KB object code size
