Circuit: * C:\Users\richa\Desktop\3ej4\lab4\part1\Draft4.asc

Direct Newton iteration for .op point succeeded.

Date: Tue Nov 08 17:18:17 2022
Total elapsed time: 0.045 seconds.

tnom = 27
temp = 27
method = modified trap
totiter = 575
traniter = 568
tranpoints = 285
accept = 265
rejected = 20
matrix size = 49
fillins = 32
solver = Normal
Matrix Compiler1: 5.08 KB object code size  0.7/0.4/[0.2]
Matrix Compiler2: 4.79 KB object code size  0.3/0.6/[0.2]

