Circuit: * C:\Users\richa\Desktop\3ej4\lab2\experiment\part3\3.2.asc

Direct Newton iteration for .op point succeeded.

Date: Wed Oct 05 15:26:00 2022
Total elapsed time: 0.029 seconds.

tnom = 27
temp = 27
method = trap
totiter = 7
traniter = 0
tranpoints = 0
accept = 0
rejected = 0
matrix size = 22
fillins = 2
solver = Normal
Matrix Compiler1:      75 opcodes
Matrix Compiler2: 1.78 KB object code size
