Circuit: * C:\Users\richa\Desktop\3ej4\lab3\Part1\A.asc

Direct Newton iteration for .op point succeeded.

Date: Wed Nov 09 13:37:43 2022
Total elapsed time: 0.030 seconds.

tnom = 27
temp = 27
method = trap
totiter = 8
traniter = 0
tranpoints = 0
accept = 0
rejected = 0
matrix size = 15
fillins = 0
solver = Normal
Matrix Compiler1:      49 opcodes
Matrix Compiler2: 1.15 KB object code size
