Circuit: * C:\Users\richa\Desktop\3ej4\lab3\Part2\A.asc


Date: Tue Oct 18 23:49:44 2022
Total elapsed time: 0.018 seconds.

tnom = 27
temp = 27
method = trap
totiter = 204
traniter = 0
tranpoints = 0
accept = 0
rejected = 0
matrix size = 12
fillins = 4
solver = Normal
Matrix Compiler1: 918 bytes object code size  0.1/0.1/[0.1]
Matrix Compiler2: 1.03 KB object code size  0.1/0.1/[0.1]

