Circuit: * C:\Users\richa\Desktop\3ej4\lab3\Part2\B.asc

Direct Newton iteration for .op point succeeded.

Date: Wed Oct 19 00:09:43 2022
Total elapsed time: 0.020 seconds.

tnom = 27
temp = 27
method = trap
totiter = 4
traniter = 0
tranpoints = 0
accept = 0
rejected = 0
matrix size = 14
fillins = 5
solver = Normal
Matrix Compiler1:      58 opcodes
Matrix Compiler2: 1.20 KB object code size
