Circuit: * C:\Users\richa\Desktop\3ej4\lab3\Part2\B.asc


Date: Wed Nov 09 13:40:24 2022
Total elapsed time: 0.029 seconds.

tnom = 27
temp = 27
method = trap
totiter = 184
traniter = 0
tranpoints = 0
accept = 0
rejected = 0
matrix size = 14
fillins = 4
solver = Normal
Matrix Compiler1: 982 bytes object code size  0.2/0.1/[0.1]
Matrix Compiler2: 1.19 KB object code size  0.1/0.8/[0.1]

