Circuit: * C:\Users\richa\Desktop\3ej4\lab3\Draft1.asc

Direct Newton iteration for .op point succeeded.

Date: Tue Nov 08 12:41:25 2022
Total elapsed time: 0.029 seconds.

tnom = 27
temp = 27
method = trap
totiter = 13
traniter = 0
tranpoints = 0
accept = 0
rejected = 0
matrix size = 15
fillins = 1
solver = Normal
Matrix Compiler1:      50 opcodes
Matrix Compiler2: 1.17 KB object code size
