Circuit: * C:\Users\richa\Desktop\3ej4\lab4\part1\B\B.asc

Direct Newton iteration for .op point succeeded.

Date: Tue Nov 15 23:52:31 2022
Total elapsed time: 0.031 seconds.

tnom = 27
temp = 27
method = trap
totiter = 7
traniter = 0
tranpoints = 0
accept = 0
rejected = 0
matrix size = 49
fillins = 32
solver = Normal
Matrix Compiler1:     284 opcodes
Matrix Compiler2: 4.79 KB object code size
