Circuit: * C:\Users\richa\Desktop\3ej4\lab3\Part3\3.1.asc

Direct Newton iteration for .op point succeeded.

Date: Wed Oct 19 00:39:47 2022
Total elapsed time: 0.034 seconds.

tnom = 27
temp = 27
method = trap
totiter = 7
traniter = 0
tranpoints = 0
accept = 0
rejected = 0
matrix size = 28
fillins = 14
solver = Normal
Matrix Compiler1:     136 opcodes
Matrix Compiler2: 2.57 KB object code size
